
  EPA STORM WATER MANAGEMENT MODEL - VERSION 5.0 (Build 5.0.022)
  --------------------------------------------------------------

  
  *********************************************************
  NOTE: The summary statistics displayed in this report are
  based on results found at every computational time step,  
  not just on results from each reporting time step.
  *********************************************************
  
  ****************
  Analysis Options
  ****************
  Flow Units ............... LPS
  Process Models:
    Rainfall/Runoff ........ YES
    Snowmelt ............... NO
    Groundwater ............ NO
    Flow Routing ........... YES
    Ponding Allowed ........ NO
    Water Quality .......... NO
  Infiltration Method ...... CURVE_NUMBER
  Flow Routing Method ...... DYNWAVE
  Starting Date ............ OCT-28-2011 00:00:00
  Ending Date .............. OCT-28-2011 06:00:00
  Antecedent Dry Days ...... 0.0
  Report Time Step ......... 00:01:00
  Wet Time Step ............ 00:01:00
  Dry Time Step ............ 00:01:00
  Routing Time Step ........ 1.00 sec
  

  WARNING 04: minimum elevation drop used for Conduit T30-1
  
  **************************        Volume         Depth
  Runoff Quantity Continuity     hectare-m            mm
  **************************     ---------       -------
  Total Precipitation ......        51.632        48.180
  Evaporation Loss .........         0.000         0.000
  Infiltration Loss ........        13.156        12.277
  Surface Runoff ...........        37.577        35.064
  Final Surface Storage ....         0.907         0.847
  Continuity Error (%) .....        -0.016
  
  
  **************************        Volume        Volume
  Flow Routing Continuity        hectare-m      10^6 ltr
  **************************     ---------     ---------
  Dry Weather Inflow .......         0.000         0.000
  Wet Weather Inflow .......        37.573       375.731
  Groundwater Inflow .......         0.000         0.000
  RDII Inflow ..............         0.000         0.000
  External Inflow ..........         0.000         0.000
  External Outflow .........        24.108       241.086
  Internal Outflow .........        13.269       132.686
  Storage Losses ...........         0.000         0.000
  Initial Stored Volume ....         0.000         0.001
  Final Stored Volume ......         0.207         2.065
  Continuity Error (%) .....        -0.028
  
  
  *************************
  Highest Continuity Errors
  *************************
  Node J41 (2.44%)
  
  
  ***************************
  Time-Step Critical Elements
  ***************************
  None
  
  
  ********************************
  Highest Flow Instability Indexes
  ********************************
  Link T33 (1)
  Link T2-3 (1)
  
  
  *************************
  Routing Time Step Summary
  *************************
  Minimum Time Step           :     1.00 sec
  Average Time Step           :     1.00 sec
  Maximum Time Step           :     1.00 sec
  Percent in Steady State     :     0.00
  Average Iterations per Step :     2.30
  
  
  ***************************
  Subcatchment Runoff Summary
  ***************************
  
  --------------------------------------------------------------------------------------------------------
                            Total      Total      Total      Total      Total       Total     Peak  Runoff
                           Precip      Runon       Evap      Infil     Runoff      Runoff   Runoff   Coeff
  Subcatchment                 mm         mm         mm         mm         mm    10^6 ltr      LPS
  --------------------------------------------------------------------------------------------------------
  A2                        48.18       0.00       0.00      12.73      34.67       33.60 11933.17   0.720
  A1                        48.18       0.00       0.00      13.87      33.80       11.42  4277.90   0.702
  A3                        48.18       0.00       0.00      13.75      33.78       17.13  6140.49   0.701
  A4                        48.18       0.00       0.00      14.58      33.08        9.93  3578.10   0.687
  A5                        48.18       0.00       0.00      17.57      29.99        7.65  2208.10   0.622
  C1                        48.18       0.00       0.00      17.15      30.57        5.47  1827.65   0.634
  B2                        48.18       0.00       0.00      11.79      36.03        9.84  4267.13   0.748
  B3                        48.18       0.00       0.00      11.03      36.99        5.70  3044.04   0.768
  E1                        48.18       0.00       0.00      38.39       8.92        3.11   603.40   0.185
  E2                        48.18       0.00       0.00      35.64      12.07        1.46   387.93   0.250
  D6                        48.18       0.00       0.00       5.61      42.40        5.55  2965.00   0.880
  D1                        48.18       0.00       0.00       6.12      41.98        2.80  1724.06   0.871
  D2                        48.18       0.00       0.00       7.31      40.53       11.39  5189.48   0.841
  D3                        48.18       0.00       0.00       7.24      40.70        8.06  3948.18   0.845
  D4                        48.18       0.00       0.00       6.96      40.80       12.69  5507.23   0.847
  D5                        48.18       0.00       0.00      10.52      37.31        9.81  4364.30   0.774
  I2                        48.18       0.00       0.00      11.67      35.99        5.15  2012.06   0.747
  I1                        48.18       0.00       0.00      12.61      32.81       19.42  5773.11   0.681
  L                         48.18       0.00       0.00      12.40      31.17       20.48  5384.15   0.647
  J                         48.18       0.00       0.00      10.45      37.51        5.74  2755.22   0.779
  G1                        48.18       0.00       0.00       9.92      37.80       16.82  7077.57   0.785
  G2                        48.18       0.00       0.00       8.89      38.99       10.53  4844.75   0.809
  H                         48.18       0.00       0.00       9.36      38.19       23.94  9319.96   0.793
  F                         48.18       0.00       0.00      10.26      37.40       14.10  5737.50   0.776
  E3                        48.18       0.00       0.00       7.26      40.33       16.21  6511.73   0.837
  G3                        48.18       0.00       0.00       8.17      39.97        1.08   749.23   0.830
  C2D                       48.18       0.00       0.00       9.10      39.00        5.44  3316.60   0.810
  C2C                       48.18       0.00       0.00       9.58      38.39       16.60  8219.28   0.797
  C2A                       48.18       0.00       0.00       9.65      38.29       18.70  9101.89   0.795
  C2B                       48.18       0.00       0.00       9.43      38.58       12.92  6657.93   0.801
  B1A                       48.18       0.00       0.00      12.66      35.15       22.96 10436.09   0.730
  B1B                       48.18       0.00       0.00      11.93      36.07       10.10  5263.01   0.749
  
  
  ******************
  Node Depth Summary
  ******************
  
  ---------------------------------------------------------------------
                                 Average  Maximum  Maximum  Time of Max
                                   Depth    Depth      HGL   Occurrence
  Node                 Type       Meters   Meters   Meters  days hr:min
  ---------------------------------------------------------------------
  J1                   JUNCTION     0.78     0.80     0.80     0  00:15
  J2                   JUNCTION     0.00     0.00    45.63     0  00:00
  J3                   JUNCTION     0.45     1.80    38.24     0  00:58
  J4                   JUNCTION     0.75     1.80    54.65     0  00:38
  J5                   JUNCTION     0.71     1.80    49.18     0  00:41
  J6                   JUNCTION     0.69     1.80    43.71     0  00:41
  J7                   JUNCTION     0.40     0.86    30.45     0  01:38
  J8                   JUNCTION     0.08     0.20    23.66     0  01:29
  J9                   JUNCTION     0.17     0.60    38.28     0  01:06
  J10                  JUNCTION     0.35     2.00    34.42     0  01:01
  J11                  JUNCTION     0.31     2.00    29.16     0  01:01
  J12                  JUNCTION     0.84     2.79    18.44     0  01:07
  J13                  JUNCTION     0.48     2.00    38.98     0  00:53
  J14                  JUNCTION     0.40     2.50    32.00     0  01:00
  J15                  JUNCTION     0.21     0.86    22.18     0  01:06
  J16                  JUNCTION     0.11     0.40    57.08     0  01:06
  J17                  JUNCTION     0.28     2.50    39.71     0  01:02
  J18                  JUNCTION     0.20     1.24    37.05     0  01:08
  J19                  JUNCTION     0.39     2.50    29.94     0  01:02
  J20                  JUNCTION     0.42     1.40    34.35     0  00:27
  J21                  JUNCTION     0.35     3.00    27.44     0  01:01
  J22                  JUNCTION     0.00     0.00    27.64     0  00:00
  J23                  JUNCTION     0.29     1.37    22.82     0  01:02
  J24                  JUNCTION     0.35     1.62    21.77     0  01:03
  J25                  JUNCTION     0.33     1.48    19.46     0  01:15
  J26                  JUNCTION     0.29     1.25    18.07     0  01:15
  J27                  JUNCTION     0.52     1.80    27.64     0  00:39
  J28                  JUNCTION     0.16     0.38    24.63     0  00:59
  J29                  JUNCTION     0.61     2.39    17.05     0  01:06
  J30                  JUNCTION     0.24     1.80    30.04     0  00:58
  J31                  JUNCTION     0.17     0.65    25.66     0  01:02
  J32                  JUNCTION     0.17     0.73    20.02     0  01:10
  J33                  JUNCTION     0.10     0.64    39.53     0  01:03
  J34                  JUNCTION     0.10     0.59    31.20     0  01:06
  J35                  JUNCTION     0.20     0.97    22.38     0  01:07
  J36                  JUNCTION     0.07     0.52    21.73     0  01:09
  J37                  JUNCTION     0.40     2.50    17.59     0  01:02
  J38                  JUNCTION     0.24     1.27    13.39     0  01:07
  J39                  JUNCTION     0.39     2.15    13.17     0  01:06
  J40                  JUNCTION     0.95     1.00     1.00     0  00:28
  J41                  JUNCTION     0.94     1.00     1.00     0  00:28
  J42                  JUNCTION     0.40     2.40    12.82     0  01:05
  J43                  JUNCTION     0.39     2.20    12.14     0  01:02
  J44                  JUNCTION     0.51     2.20    11.36     0  01:01
  J45                  JUNCTION     0.15     0.58     9.22     0  01:22
  J46                  JUNCTION     0.20     0.76     9.05     0  01:23
  J47                  JUNCTION     0.21     0.79     8.47     0  01:07
  J48                  JUNCTION     0.39     1.56     8.01     0  01:11
  J50                  JUNCTION     0.55     2.00    18.49     0  00:51
  J51                  JUNCTION     0.57     2.00    17.23     0  00:49
  J52                  JUNCTION     0.86     1.90    15.24     0  00:28
  J53                  JUNCTION     0.18     0.33    12.73     0  00:47
  J54                  JUNCTION     0.50     1.83    11.43     0  01:09
  J55                  JUNCTION     0.28     2.00    29.02     0  01:01
  J56                  JUNCTION     0.63     2.20    14.22     0  00:55
  J57                  JUNCTION     0.20     1.80    27.59     0  01:00
  J58                  JUNCTION     0.41     2.50    13.76     0  01:06
  J59                  JUNCTION     0.55     2.50    10.79     0  01:00
  J60                  JUNCTION     0.50     1.79     9.69     0  01:10
  J49                  JUNCTION     0.50     1.91     6.91     0  01:10
  J63                  JUNCTION     0.49     1.88    14.21     0  01:07
  Out2                 OUTFALL      0.50     2.00     6.50     0  01:20
  
  
  *******************
  Node Inflow Summary
  *******************
  
  -------------------------------------------------------------------------------------
                                  Maximum  Maximum                  Lateral       Total
                                  Lateral    Total  Time of Max      Inflow      Inflow
                                   Inflow   Inflow   Occurrence      Volume      Volume
  Node                 Type           LPS      LPS  days hr:min    10^6 ltr    10^6 ltr
  -------------------------------------------------------------------------------------
  J1                   JUNCTION   4276.92  4276.92     0  01:03      11.423      11.423
  J2                   JUNCTION      0.00     0.00     0  00:00       0.000       0.000
  J3                   JUNCTION   6139.72  7324.57     0  01:05      17.124      30.279
  J4                   JUNCTION  11930.76 11930.76     0  01:05      33.597      33.597
  J5                   JUNCTION      0.00  1353.60     0  00:40       0.000      13.171
  J6                   JUNCTION      0.00  1274.73     0  00:40       0.000      13.165
  J7                   JUNCTION      0.00  3501.90     0  00:58       0.000      26.627
  J8                   JUNCTION    603.40  7622.91     0  01:29       3.111      45.492
  J9                   JUNCTION   2207.30  2207.30     0  01:06       7.646       7.646
  J10                  JUNCTION   3577.23  5760.56     0  01:06       9.924      17.570
  J11                  JUNCTION      0.00  3677.94     0  01:01       0.000      15.793
  J12                  JUNCTION    387.92 18082.57     0  01:06       1.460      85.247
  J13                  JUNCTION   9528.27  9528.27     0  01:03      19.931      19.931
  J14                  JUNCTION  10434.45 10434.45     0  01:05      22.955      22.955
  J15                  JUNCTION   3042.67 10706.63     0  01:03       5.697      38.318
  J16                  JUNCTION   1827.00  1827.00     0  01:06       5.471       5.471
  J17                  JUNCTION   9100.99 10877.14     0  01:05      18.697      24.163
  J18                  JUNCTION      0.00  9533.24     0  01:08       0.000      23.859
  J19                  JUNCTION      0.00  9738.69     0  01:08       0.000      25.616
  J20                  JUNCTION   3314.80  3314.80     0  01:03       5.441       5.441
  J21                  JUNCTION   8218.69 14150.87     0  01:05      16.597      39.600
  J22                  JUNCTION      0.00     0.00     0  00:00       0.000       0.000
  J23                  JUNCTION      0.00 10465.88     0  01:01       0.000      37.824
  J24                  JUNCTION      0.00 10498.25     0  01:02       0.000      37.819
  J25                  JUNCTION      0.00 10432.11     0  01:04       0.000      37.809
  J26                  JUNCTION      0.00 11348.01     0  01:05       0.000      44.060
  J27                  JUNCTION   6657.43  6657.43     0  01:03      12.918      12.918
  J28                  JUNCTION      0.00   939.81     0  00:59       0.000       6.262
  J29                  JUNCTION   6510.68 35442.64     0  01:06      16.210     145.395
  J30                  JUNCTION   2964.00  2964.00     0  01:03       5.554       5.554
  J31                  JUNCTION      0.00  1305.06     0  01:02       0.000       4.600
  J32                  JUNCTION      0.00  2754.27     0  01:09       0.000       7.394
  J33                  JUNCTION   1722.95  1722.95     0  01:02       2.796       2.796
  J34                  JUNCTION      0.00  1674.28     0  01:03       0.000       2.797
  J35                  JUNCTION      0.00  1566.69     0  01:06       0.000       2.798
  J36                  JUNCTION      0.00  1502.42     0  01:07       0.000       2.793
  J37                  JUNCTION   5506.60  7728.81     0  01:06      12.687      20.071
  J38                  JUNCTION      0.00  5859.46     0  01:08       0.000      19.134
  J39                  JUNCTION      0.00  5874.54     0  01:08       0.000      19.134
  J40                  JUNCTION   5188.99  5188.99     0  01:05      11.389      11.389
  J41                  JUNCTION   3947.48  5887.42     0  01:05       8.059      17.958
  J42                  JUNCTION      0.00  5893.30     0  01:08       0.000      19.189
  J43                  JUNCTION   4363.82  6047.72     0  01:06       9.813      17.690
  J44                  JUNCTION      0.00  3987.40     0  01:19       0.000      16.616
  J45                  JUNCTION      0.00  3987.32     0  01:22       0.000      16.603
  J46                  JUNCTION      0.00  3987.01     0  01:22       0.000      16.599
  J47                  JUNCTION   5771.64  9530.59     0  01:06      19.415      36.001
  J48                  JUNCTION   2011.82 11362.07     0  01:06       5.146      41.119
  J50                  JUNCTION   5736.75  5736.75     0  01:05      14.098      14.098
  J51                  JUNCTION      0.00  1393.98     0  00:57       0.000       9.114
  J52                  JUNCTION   9318.28 10584.69     0  01:05      23.942      32.592
  J53                  JUNCTION      0.00  1212.32     0  00:47       0.000      12.448
  J54                  JUNCTION      0.00 36758.75     0  01:08       0.000     157.668
  J55                  JUNCTION   7076.75  7076.75     0  01:05      16.819      16.819
  J56                  JUNCTION   3502.57 10145.33     0  01:03       6.818      31.414
  J57                  JUNCTION   4843.95  4843.95     0  01:03      10.526      10.526
  J58                  JUNCTION      0.00  4533.84     0  01:03       0.000      22.603
  J59                  JUNCTION      0.00  4341.38     0  01:00       0.000      22.593
  J60                  JUNCTION      0.00 40344.97     0  01:09       0.000     180.035
  J49                  JUNCTION   5382.96 55669.12     0  01:10      20.467     241.332
  J63                  JUNCTION      0.00 35404.15     0  01:06       0.000     145.341
  Out2                 OUTFALL       0.00 57636.36     0  01:11       0.000     241.085
  
  
  **********************
  Node Surcharge Summary
  **********************
  
  Surcharging occurs when water rises above the top of the highest conduit.
  ---------------------------------------------------------------------
                                               Max. Height   Min. Depth
                                   Hours       Above Crown    Below Rim
  Node                 Type      Surcharged         Meters       Meters
  ---------------------------------------------------------------------
  J1                   JUNCTION        5.75          0.000        0.000
  J3                   JUNCTION        0.81          1.000        0.000
  J4                   JUNCTION        1.93          1.000        0.000
  J5                   JUNCTION        1.93          1.000        0.000
  J6                   JUNCTION        2.01          1.000        0.000
  J10                  JUNCTION        0.47          1.000        0.000
  J11                  JUNCTION        0.45          1.000        0.000
  J13                  JUNCTION        0.92          1.000        0.000
  J14                  JUNCTION        0.31          1.000        0.000
  J17                  JUNCTION        0.18          1.000        0.000
  J19                  JUNCTION        0.32          1.000        0.000
  J20                  JUNCTION        1.63          1.000        0.000
  J21                  JUNCTION        0.38          1.500        0.000
  J27                  JUNCTION        1.41          1.000        0.000
  J30                  JUNCTION        0.39          1.000        0.000
  J37                  JUNCTION        0.29          1.000        0.000
  J40                  JUNCTION        5.53          0.000        0.000
  J41                  JUNCTION        5.52          0.000        0.000
  J42                  JUNCTION        0.35          0.000        0.000
  J43                  JUNCTION        0.62          1.000        0.000
  J44                  JUNCTION        0.77          1.000        0.000
  J50                  JUNCTION        1.21          1.000        0.000
  J51                  JUNCTION        1.31          1.000        0.000
  J52                  JUNCTION        2.14          1.000        0.000
  J55                  JUNCTION        0.29          0.800        0.000
  J56                  JUNCTION        0.88          0.700        0.000
  J57                  JUNCTION        0.29          1.100        0.000
  J58                  JUNCTION        0.60          1.000        0.000
  J59                  JUNCTION        0.86          1.000        0.000
  
  
  *********************
  Node Flooding Summary
  *********************
  
  Flooding refers to all water that overflows a node, whether it ponds or not.
  --------------------------------------------------------------------------
                                                             Total   Maximum
                                 Maximum   Time of Max       Flood    Ponded
                        Hours       Rate    Occurrence      Volume     Depth
  Node                 Flooded       LPS   days hr:min    10^6 ltr    Meters
  --------------------------------------------------------------------------
  J1                      5.75   4275.95      0  01:03      11.361      0.80
  J3                      0.66   3844.64      0  01:05       3.642      1.80
  J4                      1.88  10744.59      0  01:06      20.421      1.80
  J5                      0.02    112.93      0  00:41       0.001      1.80
  J6                      0.02     89.31      0  00:59       0.001      1.80
  J10                     0.43   2259.50      0  01:06       1.775      2.00
  J11                     0.01    154.76      0  01:01       0.000      2.00
  J13                     0.84   7315.59      0  01:03       7.460      2.00
  J14                     0.28   4959.10      0  01:05       2.809      2.50
  J17                     0.10   1664.36      0  01:02       0.316      2.50
  J19                     0.28   3806.52      0  01:08       2.606      2.50
  J20                     1.61   3108.27      0  01:03       3.678      1.40
  J21                     0.23   3746.86      0  01:05       1.782      3.00
  J27                     1.18   5717.13      0  01:03       6.657      1.80
  J30                     0.34   1658.28      0  01:03       0.956      1.80
  J37                     0.22   1958.12      0  01:06       0.932      2.50
  J40                     5.53   5175.28      0  01:05      10.939      1.00
  J41                     5.52   5887.13      0  01:05      17.519      1.00
  J42                     0.35   1807.66      0  01:08       1.698      2.40
  J43                     0.32   2205.91      0  01:02       1.017      2.20
  J44                     0.01    574.91      0  01:01       0.002      2.20
  J50                     0.97   4342.01      0  01:05       4.984      2.00
  J51                     1.05    209.91      0  00:49       0.463      2.00
  J52                     1.93   9371.03      0  01:06      20.135      1.90
  J55                     0.26   3112.69      0  01:05       1.625      2.00
  J56                     0.75   6188.76      0  01:06       8.779      2.20
  J57                     0.26   2163.63      0  01:03       1.122      1.80
  J58                     0.01    221.25      0  01:06       0.000      2.50
  J59                     0.01    548.11      0  01:05       0.004      2.50
  
  
  ***********************
  Outfall Loading Summary
  ***********************
  
  -----------------------------------------------------------
                        Flow       Avg.      Max.       Total
                        Freq.      Flow      Flow      Volume
  Outfall Node          Pcnt.       LPS       LPS    10^6 ltr
  -----------------------------------------------------------
  Out2                  98.25  11359.61  57636.36     241.085
  -----------------------------------------------------------
  System                98.25  11359.61  57636.36     241.085
  
  
  ********************
  Link Flow Summary
  ********************
  
  -----------------------------------------------------------------------------
                                 Maximum  Time of Max   Maximum    Max/    Max/
                                  |Flow|   Occurrence   |Veloc|    Full    Full
  Link                 Type          LPS  days hr:min     m/sec    Flow   Depth
  -----------------------------------------------------------------------------
  T4-1                 CONDUIT   2196.36     0  01:06      3.27    0.66    0.80
  T4-2                 CONDUIT   3677.94     0  01:01      4.73    1.11    1.00
  T4-3                 CONDUIT   3546.27     0  01:01      8.00    0.92    0.60
  T1-1                 CONDUIT      0.00     0  00:00      0.00    0.00    0.50
  T1-2                 CONDUIT      0.00     0  00:00      0.00    0.00    0.50
  T2-1                 CONDUIT   1353.60     0  00:40      2.74    1.14    1.00
  T2-2                 CONDUIT   1274.73     0  00:40      2.65    1.08    1.00
  T2-3                 CONDUIT   1258.99     0  00:58      3.13    1.06    1.00
  T3-1                 CONDUIT   3501.90     0  00:58      2.36    1.07    1.00
  T3-2                 CONDUIT   3481.75     0  01:29      4.27    0.83    0.53
  T5                   CONDUIT   7609.71     0  01:29      2.58    0.02    0.50
  T6                   CONDUIT   2226.34     0  01:06      3.47    1.06    0.93
  T7                   CONDUIT   5473.81     0  01:06      4.10    1.01    0.79
  T11                  CONDUIT    257.35     0  00:27      2.56    1.12    1.00
  T10-1                CONDUIT   1797.71     0  01:06      1.88    0.16    0.63
  T10-2                CONDUIT   9533.24     0  01:08      3.56    1.34    0.91
  T10-3                CONDUIT   9532.45     0  01:08      4.64    0.93    0.91
  T12                  CONDUIT   6352.82     0  01:18      4.26    0.98    1.00
  T13                  CONDUIT      0.00     0  00:00      0.00    0.00    0.50
  T14-1                CONDUIT  10465.88     0  01:01      4.76    1.25    1.00
  T14-2                CONDUIT  10498.25     0  01:02      3.60    0.73    0.74
  T14-3                CONDUIT  10432.11     0  01:04      3.39    1.07    0.86
  T14-4                CONDUIT  10408.20     0  01:05      3.83    0.65    0.55
  T15-1                CONDUIT    939.81     0  00:59      2.37    1.22    0.74
  T15-2                CONDUIT    939.81     0  00:59      3.41    0.38    0.71
  T16                  CONDUIT  11343.22     0  01:15      3.25    0.50    0.73
  T25-1                CONDUIT   1305.06     0  01:02      2.74    1.16    0.91
  T25-2                CONDUIT   1321.10     0  01:05      2.62    0.74    0.68
  T26-1                CONDUIT   1674.28     0  01:03      3.44    0.71    0.60
  T26-2                CONDUIT   1566.69     0  01:06      2.53    0.66    0.78
  T27                  CONDUIT   1502.42     0  01:07      1.21    1.52    0.74
  T28                  CONDUIT   1454.27     0  01:09      1.95    0.53    0.62
  T29-1                CONDUIT   2714.40     0  01:10      1.92    0.48    0.74
  T29-2                CONDUIT   5859.46     0  01:08      3.48    1.22    0.92
  T29-3                CONDUIT   5874.54     0  01:08      2.66    0.56    0.78
  T29-4                CONDUIT   5893.30     0  01:08      2.90    0.85    0.95
  T30-1                CONDUIT    225.61     0  00:25      0.43   16.12    1.00
  T30-2                CONDUIT   2011.98     0  01:02      2.59    1.07    1.00
  T31-1                CONDUIT   2290.90     0  01:30      1.01    1.30    1.00
  T31-2                CONDUIT   3987.40     0  01:19      1.76    1.02    1.00
  T31-3                CONDUIT   3987.32     0  01:22      2.25    1.76    0.74
  T32-1                CONDUIT   3987.01     0  01:22      2.09    0.27    0.40
  T32-2                CONDUIT   3984.35     0  01:23      1.90    0.42    0.45
  T32-3                CONDUIT   9478.04     0  01:07      2.84    0.45    0.69
  T32-4                CONDUIT  10861.64     0  01:09      2.25    1.15    0.96
  T19-3                CONDUIT   1393.98     0  00:57      1.78    1.00    1.00
  T19-4                CONDUIT   1266.41     0  00:56      1.99    1.03    1.00
  T19-5                CONDUIT   1212.32     0  00:47      2.62    1.40    0.68
  T19-6                CONDUIT   1212.32     0  00:47      2.69    0.19    0.63
  T21                  CONDUIT   4336.73     0  01:19      3.72    1.09    1.00
  T22                  CONDUIT   2771.78     0  01:00      3.69    1.02    1.00
  T23-1                CONDUIT   4533.84     0  01:03      2.85    1.56    1.00
  T23-2                CONDUIT   4341.38     0  01:00      2.35    1.10    1.00
  T23-3                CONDUIT   4214.91     0  01:01      1.56    1.56    1.00
  T33                  CONDUIT  57636.36     0  01:11      6.17    1.15    0.97
  T8                   CONDUIT  10530.35     0  01:06      1.78    0.45    0.79
  T9                   CONDUIT  17894.95     0  01:08      2.32    0.79    0.74
  T17                  CONDUIT  35404.15     0  01:06      5.53    0.90    0.79
  T18                  CONDUIT  35546.42     0  01:08      4.28    1.06    0.84
  T20                  CONDUIT  36666.31     0  01:09      4.52    1.03    0.82
  T24                  CONDUIT  40364.05     0  01:11      4.46    1.14    0.93
  
  
  ***************************
  Flow Classification Summary
  ***************************
  
  -----------------------------------------------------------------------------------------
                      Adjusted    --- Fraction of Time in Flow Class ----   Avg.     Avg.  
                       /Actual         Up    Down  Sub   Sup   Up    Down   Froude   Flow  
  Conduit               Length    Dry  Dry   Dry   Crit  Crit  Crit  Crit   Number   Change
  -----------------------------------------------------------------------------------------
  T4-1                    1.00   0.01  0.00  0.00  0.03  0.96  0.00  0.00     1.31   0.0001
  T4-2                    1.00   0.01  0.00  0.00  0.08  0.91  0.00  0.00     1.78   0.0001
  T4-3                    1.00   0.01  0.00  0.00  0.00  0.99  0.00  0.00     4.11   0.0001
  T1-1                    1.00   0.01  0.99  0.00  0.00  0.00  0.00  0.00     0.00   0.0000
  T1-2                    1.00   0.01  0.99  0.00  0.00  0.00  0.00  0.00     0.00   0.0000
  T2-1                    1.00   0.01  0.00  0.00  0.34  0.65  0.00  0.00     0.91   0.0001
  T2-2                    1.00   0.01  0.00  0.00  0.36  0.63  0.00  0.00     0.85   0.0001
  T2-3                    1.00   0.01  0.00  0.00  0.23  0.76  0.00  0.00     1.29   0.0001
  T3-1                    1.00   0.01  0.00  0.00  0.90  0.09  0.00  0.00     0.80   0.0003
  T3-2                    1.00   0.01  0.00  0.00  0.02  0.97  0.00  0.00     2.55   0.0002
  T5                      1.00   0.01  0.00  0.00  0.95  0.04  0.00  0.00     0.75   0.0000
  T6                      1.00   0.01  0.00  0.00  0.09  0.90  0.00  0.00     1.74   0.0001
  T7                      1.00   0.01  0.00  0.00  0.00  0.99  0.00  0.00     1.70   0.0001
  T11                     1.00   0.01  0.00  0.00  0.93  0.06  0.00  0.00     0.31   0.0001
  T10-1                   1.00   0.01  0.00  0.00  0.23  0.76  0.00  0.00     1.60   0.0000
  T10-2                   1.00   0.01  0.00  0.00  0.59  0.41  0.00  0.00     0.93   0.0001
  T10-3                   1.00   0.01  0.01  0.00  0.69  0.29  0.00  0.00     0.74   0.0001
  T12                     1.00   0.01  0.00  0.00  0.09  0.91  0.00  0.00     1.92   0.0001
  T13                     1.00   0.01  0.99  0.00  0.00  0.00  0.00  0.00     0.00   0.0000
  T14-1                   1.00   0.01  0.00  0.00  0.07  0.92  0.00  0.00     1.17   0.0001
  T14-2                   1.00   0.01  0.00  0.00  0.60  0.38  0.00  0.00     0.97   0.0001
  T14-3                   1.00   0.02  0.00  0.00  0.90  0.09  0.00  0.00     0.88   0.0001
  T14-4                   1.00   0.02  0.01  0.00  0.45  0.52  0.00  0.00     0.96   0.0001
  T15-1                   1.00   0.01  0.00  0.00  0.04  0.95  0.00  0.00     1.08   0.0001
  T15-2                   1.00   0.01  0.00  0.00  0.13  0.86  0.00  0.00     1.53   0.0000
  T16                     1.00   0.01  0.01  0.00  0.94  0.05  0.00  0.00     0.55   0.0000
  T25-1                   1.00   0.01  0.00  0.00  0.19  0.80  0.00  0.00     1.12   0.0001
  T25-2                   1.00   0.01  0.00  0.00  0.67  0.32  0.00  0.00     0.99   0.0001
  T26-1                   1.00   0.01  0.00  0.00  0.25  0.74  0.00  0.00     1.23   0.0001
  T26-2                   1.00   0.01  0.00  0.00  0.92  0.07  0.00  0.00     0.51   0.0001
  T27                     1.00   0.01  0.00  0.00  0.99  0.00  0.00  0.00     0.35   0.0003
  T28                     1.00   0.01  0.02  0.00  0.97  0.00  0.00  0.00     0.28   0.0000
  T29-1                   1.00   0.01  0.00  0.00  0.99  0.00  0.00  0.00     0.48   0.0000
  T29-2                   1.00   0.01  0.00  0.00  0.07  0.93  0.00  0.00     1.52   0.0001
  T29-3                   1.00   0.01  0.00  0.00  0.97  0.03  0.00  0.00     0.74   0.0001
  T29-4                   1.00   0.02  0.00  0.00  0.95  0.03  0.00  0.00     0.57   0.0001
  T30-1                   1.00   0.01  0.00  0.00  0.99  0.00  0.00  0.00     0.01   0.0015
  T30-2                   1.00   0.01  0.02  0.00  0.97  0.00  0.00  0.00     0.15   0.0001
  T31-1                   1.00   0.01  0.02  0.00  0.97  0.00  0.00  0.00     0.28   0.0005
  T31-2                   1.00   0.01  0.00  0.00  0.97  0.02  0.00  0.00     0.37   0.0002
  T31-3                   1.00   0.01  0.00  0.00  0.99  0.00  0.00  0.00     0.62   0.0003
  T32-1                   1.00   0.01  0.00  0.00  0.96  0.03  0.00  0.00     0.68   0.0000
  T32-2                   1.00   0.01  0.03  0.00  0.96  0.00  0.00  0.00     0.43   0.0000
  T32-3                   1.00   0.01  0.00  0.00  0.95  0.04  0.00  0.00     0.81   0.0000
  T32-4                   1.00   0.01  0.00  0.00  0.99  0.00  0.00  0.00     0.50   0.0001
  T19-3                   1.00   0.01  0.00  0.00  0.94  0.06  0.00  0.00     0.71   0.0001
  T19-4                   1.00   0.01  0.00  0.00  0.99  0.00  0.00  0.00     0.28   0.0001
  T19-5                   1.00   0.01  0.00  0.00  0.02  0.97  0.00  0.00     1.27   0.0001
  T19-6                   1.00   0.01  0.00  0.00  0.91  0.08  0.00  0.00     0.75   0.0000
  T21                     1.00   0.01  0.00  0.00  0.98  0.01  0.00  0.00     0.46   0.0001
  T22                     1.00   0.01  0.00  0.00  0.90  0.09  0.00  0.00     0.45   0.0002
  T23-1                   1.00   0.01  0.00  0.00  0.28  0.71  0.00  0.00     0.92   0.0002
  T23-2                   1.00   0.01  0.00  0.00  0.95  0.04  0.00  0.00     0.48   0.0001
  T23-3                   1.00   0.03  0.00  0.00  0.97  0.00  0.00  0.00     0.27   0.0002
  T33                     1.00   0.01  0.00  0.00  0.04  0.95  0.00  0.00     1.42   0.0001
  T8                      1.00   0.01  0.00  0.00  0.99  0.00  0.00  0.00     0.19   0.0000
  T9                      1.00   0.01  0.01  0.00  0.98  0.00  0.00  0.00     0.49   0.0001
  T17                     1.00   0.01  0.00  0.00  0.01  0.98  0.00  0.00     1.22   0.0001
  T18                     1.00   0.02  0.00  0.00  0.71  0.27  0.00  0.00     0.88   0.0001
  T20                     1.00   0.02  0.00  0.00  0.41  0.57  0.00  0.00     1.00   0.0001
  T24                     1.00   0.01  0.03  0.00  0.45  0.51  0.00  0.00     0.95   0.0001
  
  
  *************************
  Conduit Surcharge Summary
  *************************
  
  ----------------------------------------------------------------------------
                                                           Hours        Hours 
                         --------- Hours Full --------   Above Full   Capacity
  Conduit                Both Ends  Upstream  Dnstream   Normal Flow   Limited
  ----------------------------------------------------------------------------
  T4-2                        0.45      0.45      0.45      0.50         0.45
  T2-1                        1.88      1.88      1.88      1.27         1.17
  T2-2                        1.93      1.93      1.93      1.24         1.17
  T2-3                        0.81      0.81      0.81      1.17         0.14
  T3-1                        0.81      0.81      0.81      2.47         0.80
  T3-2                        0.01      0.01      0.01      1.51         0.01
  T6                          0.01      0.01      0.01      0.43         0.01
  T7                          0.01      0.01      0.01      0.14         0.01
  T11                         1.61      1.61      1.61      1.35         1.26
  T10-2                       0.01      0.01      0.01      0.23         0.01
  T12                         0.32      0.32      0.32      0.01         0.01
  T14-1                       0.43      0.43      0.43      0.46         0.42
  T14-3                       0.01      0.01      0.01      0.30         0.01
  T15-1                       0.01      0.01      0.01      1.42         0.01
  T25-1                       0.01      0.01      0.01      0.42         0.01
  T27                         0.01      0.01      0.01      0.47         0.01
  T29-2                       0.01      0.01      0.01      0.36         0.01
  T30-1                       5.52      5.52      5.52      0.87         0.01
  T30-2                       0.64      0.64      0.64      0.69         0.64
  T31-1                       0.60      0.60      0.60      0.84         0.57
  T31-2                       0.62      0.62      0.62      0.91         0.36
  T31-3                       0.01      0.01      0.01      1.34         0.01
  T32-4                       0.01      0.01      0.01      0.21         0.01
  T19-3                       1.21      1.21      1.21      0.01         0.01
  T19-4                       1.35      1.35      1.35      1.07         1.08
  T19-5                       0.01      0.01      0.01      2.26         0.01
  T21                         0.29      0.29      0.29      0.03         0.01
  T22                         0.29      0.29      0.29      0.69         0.01
  T23-1                       0.60      0.60      0.60      1.09         0.60
  T23-2                       0.79      0.79      0.79      0.12         0.01
  T23-3                       0.46      0.46      0.46      1.18         0.46
  T33                         0.01      0.01      0.01      0.26         0.01
  T18                         0.01      0.01      0.01      0.15         0.01
  T20                         0.01      0.01      0.01      0.09         0.01
  T24                         0.01      0.01      0.01      0.33         0.01
  

  Analysis begun on:  Wed Apr 11 20:13:42 2012
  Analysis ended on:  Wed Apr 11 20:13:45 2012
  Total elapsed time: 00:00:03