
  EPA STORM WATER MANAGEMENT MODEL - VERSION 5.1 (Build 5.1.010)
  --------------------------------------------------------------

  
  *********************************************************
  NOTE: The summary statistics displayed in this report are
  based on results found at every computational time step,  
  not just on results from each reporting time step.
  *********************************************************
  
  ****************
  Analysis Options
  ****************
  Flow Units ............... LPS
  Process Models:
    Rainfall/Runoff ........ YES
    RDII ................... NO
    Snowmelt ............... NO
    Groundwater ............ NO
    Flow Routing ........... YES
    Ponding Allowed ........ NO
    Water Quality .......... NO
  Infiltration Method ...... CURVE_NUMBER
  Flow Routing Method ...... DYNWAVE
  Starting Date ............ OCT-28-2011 00:00:00
  Ending Date .............. OCT-28-2011 06:00:00
  Antecedent Dry Days ...... 0.0
  Report Time Step ......... 00:01:00
  Wet Time Step ............ 00:01:00
  Dry Time Step ............ 00:01:00
  Routing Time Step ........ 30.00 sec
  Variable Time Step ....... YES
  Maximum Trials ........... 8
  Number of Threads ........ 1
  Head Tolerance ........... 0.001524 m
  
  
  **************************        Volume         Depth
  Runoff Quantity Continuity     hectare-m            mm
  **************************     ---------       -------
  Total Precipitation ......        13.095        48.180
  Evaporation Loss .........         0.000         0.000
  Infiltration Loss ........         4.624        17.013
  Surface Runoff ...........         8.283        30.474
  Final Storage ............         0.190         0.699
  Continuity Error (%) .....        -0.012
  
  
  **************************        Volume        Volume
  Flow Routing Continuity        hectare-m      10^6 ltr
  **************************     ---------     ---------
  Dry Weather Inflow .......         0.000         0.000
  Wet Weather Inflow .......         8.282        82.820
  Groundwater Inflow .......         0.000         0.000
  RDII Inflow ..............         0.000         0.000
  External Inflow ..........         0.000         0.000
  External Outflow .........         4.547        45.471
  Flooding Loss ............         3.720        37.198
  Evaporation Loss .........         0.000         0.000
  Exfiltration Loss ........         0.000         0.000
  Initial Stored Volume ....         0.000         0.000
  Final Stored Volume ......         0.015         0.155
  Continuity Error (%) .....        -0.005
  
  
  ***************************
  Time-Step Critical Elements
  ***************************
  Link T4-3 (81.49%)
  
  
  ********************************
  Highest Flow Instability Indexes
  ********************************
  Link T5 (2)
  Link T2-3 (1)
  
  
  *************************
  Routing Time Step Summary
  *************************
  Minimum Time Step           :     3.33 sec
  Average Time Step           :    10.55 sec
  Maximum Time Step           :    30.00 sec
  Percent in Steady State     :     0.00
  Average Iterations per Step :     2.75
  Percent Not Converging      :     4.54
  
  
  ***************************
  Subcatchment Runoff Summary
  ***************************
  
  --------------------------------------------------------------------------------------------------------
                            Total      Total      Total      Total      Total       Total     Peak  Runoff
                           Precip      Runon       Evap      Infil     Runoff      Runoff   Runoff   Coeff
  Subcatchment                 mm         mm         mm         mm         mm    10^6 ltr      LPS
  --------------------------------------------------------------------------------------------------------
  A2                        48.18       0.00       0.00      12.73      34.67       33.60 11933.17   0.720
  A1                        48.18       0.00       0.00      13.87      33.80       11.42  4277.90   0.701
  A3                        48.18       0.00       0.00      13.75      33.78       17.12  6140.49   0.701
  A4                        48.18       0.00       0.00      14.58      33.08        9.92  3578.10   0.687
  A5                        48.18       0.00       0.00      17.57      29.99        7.65  2208.10   0.622
  E1                        48.18       0.00       0.00      38.39       8.91        3.11   603.40   0.185
  
  
  ******************
  Node Depth Summary
  ******************
  
  ---------------------------------------------------------------------------------
                                 Average  Maximum  Maximum  Time of Max    Reported
                                   Depth    Depth      HGL   Occurrence   Max Depth
  Node                 Type       Meters   Meters   Meters  days hr:min      Meters
  ---------------------------------------------------------------------------------
  J1                   JUNCTION     0.79     0.80     0.80     0  00:15        0.24
  J2                   JUNCTION     0.00     0.00    45.63     0  00:00        0.00
  J3                   JUNCTION     0.79     1.80    38.24     0  00:59        0.55
  J4                   JUNCTION     1.26     1.80    54.65     0  00:38        0.55
  J5                   JUNCTION     1.18     1.80    49.18     0  00:41        0.55
  J6                   JUNCTION     1.12     1.80    43.71     0  00:59        0.55
  J7                   JUNCTION     0.59     0.86    30.45     0  01:38        0.26
  J8                   JUNCTION     0.12     0.20    23.66     0  01:29        0.06
  J9                   JUNCTION     0.28     0.60    38.29     0  01:06        0.18
  J10                  JUNCTION     0.65     2.00    34.42     0  01:01        0.61
  J11                  JUNCTION     0.54     1.67    28.83     0  01:01        0.43
  J12                  OUTFALL      0.12     0.20    15.85     0  01:29        0.06
  
  
  *******************
  Node Inflow Summary
  *******************
  
  -------------------------------------------------------------------------------------------------
                                  Maximum  Maximum                  Lateral       Total        Flow
                                  Lateral    Total  Time of Max      Inflow      Inflow     Balance
                                   Inflow   Inflow   Occurrence      Volume      Volume       Error
  Node                 Type           LPS      LPS  days hr:min    10^6 ltr    10^6 ltr     Percent
  -------------------------------------------------------------------------------------------------
  J1                   JUNCTION   4277.90  4277.90     0  01:03        11.4        11.4       0.547
  J2                   JUNCTION      0.00     0.00     0  00:00           0           0       0.000 ltr
  J3                   JUNCTION   6140.49  7325.34     0  01:06        17.1        30.3       0.034
  J4                   JUNCTION  11933.17 11933.17     0  01:06        33.6        33.6       0.029
  J5                   JUNCTION      0.00  1353.37     0  00:40           0        13.2       0.054
  J6                   JUNCTION      0.00  1274.35     0  00:40           0        13.2       0.080
  J7                   JUNCTION      0.00  3500.10     0  00:58           0        26.6       0.151
  J8                   JUNCTION    603.40  7622.15     0  01:29        3.11        45.5       0.017
  J9                   JUNCTION   2208.10  2208.10     0  01:06        7.65        7.65       0.017
  J10                  JUNCTION   3578.10  5761.44     0  01:06        9.92        17.6      -0.002
  J11                  JUNCTION      0.00  3670.10     0  01:01           0        15.8       0.010
  J12                  OUTFALL       0.00  7628.19     0  01:29           0        45.5       0.000
  
  
  **********************
  Node Surcharge Summary
  **********************
  
  Surcharging occurs when water rises above the top of the highest conduit.
  ---------------------------------------------------------------------
                                               Max. Height   Min. Depth
                                   Hours       Above Crown    Below Rim
  Node                 Type      Surcharged         Meters       Meters
  ---------------------------------------------------------------------
  J1                   JUNCTION        5.74          0.000        0.000
  J3                   JUNCTION        0.80          1.000        0.000
  J4                   JUNCTION        1.92          1.000        0.000
  J5                   JUNCTION        1.92          1.000        0.000
  J6                   JUNCTION        2.00          1.000        0.000
  J10                  JUNCTION        0.47          1.000        0.000
  J11                  JUNCTION        0.45          0.669        0.331
  
  
  *********************
  Node Flooding Summary
  *********************
  
  Flooding refers to all water that overflows a node, whether it ponds or not.
  --------------------------------------------------------------------------
                                                             Total   Maximum
                                 Maximum   Time of Max       Flood    Ponded
                        Hours       Rate    Occurrence      Volume     Depth
  Node                 Flooded       LPS   days hr:min    10^6 ltr    Meters
  --------------------------------------------------------------------------
  J1                      5.74   4277.78      0  01:03      11.360     0.000
  J3                      0.66   3842.43      0  01:06       3.643     0.000
  J4                      1.88  10736.85      0  01:06      20.418     0.000
  J5                      0.03     98.80      0  00:41       0.001     0.000
  J6                      0.02     77.06      0  00:59       0.001     0.000
  J10                     0.43   2254.89      0  01:06       1.778     0.000
  
  
  ***********************
  Outfall Loading Summary
  ***********************
  
  -----------------------------------------------------------
                         Flow       Avg       Max       Total
                         Freq      Flow      Flow      Volume
  Outfall Node           Pcnt       LPS       LPS    10^6 ltr
  -----------------------------------------------------------
  J12                   98.83   3928.62   7628.19      45.471
  -----------------------------------------------------------
  System                98.83   3928.62   7628.19      45.471
  
  
  ********************
  Link Flow Summary
  ********************
  
  -----------------------------------------------------------------------------
                                 Maximum  Time of Max   Maximum    Max/    Max/
                                  |Flow|   Occurrence   |Veloc|    Full    Full
  Link                 Type          LPS  days hr:min     m/sec    Flow   Depth
  -----------------------------------------------------------------------------
  T4-1                 CONDUIT   2199.83     0  01:06      3.27    0.67    0.80
  T4-2                 CONDUIT   3670.10     0  01:01      4.72    1.11    1.00
  T4-3                 CONDUIT   3542.89     0  01:29      8.00    0.91    0.60
  T1-1                 CONDUIT      0.00     0  00:00      0.00    0.00    0.50
  T1-2                 CONDUIT      0.00     0  00:00      0.00    0.00    0.50
  T2-1                 CONDUIT   1353.37     0  00:40      2.73    1.14    1.00
  T2-2                 CONDUIT   1274.35     0  00:40      2.65    1.08    1.00
  T2-3                 CONDUIT   1257.23     0  00:58      3.13    1.06    1.00
  T3-1                 CONDUIT   3500.10     0  00:58      2.35    1.07    1.00
  T3-2                 CONDUIT   3482.48     0  01:29      4.27    0.83    0.53
  T5                   CONDUIT   7628.19     0  01:29     23.22    0.02    0.07
  
  
  ***************************
  Flow Classification Summary
  ***************************
  
  -------------------------------------------------------------------------------------
                      Adjusted    ---------- Fraction of Time in Flow Class ---------- 
                       /Actual         Up    Down  Sub   Sup   Up    Down  Norm  Inlet 
  Conduit               Length    Dry  Dry   Dry   Crit  Crit  Crit  Crit  Ltd   Ctrl  
  -------------------------------------------------------------------------------------
  T4-1                    1.00   0.00  0.00  0.00  0.06  0.93  0.00  0.00  0.98  0.00
  T4-2                    1.00   0.00  0.00  0.00  0.19  0.81  0.00  0.00  0.88  0.00
  T4-3                    1.00   0.00  0.00  0.00  0.00  1.00  0.00  0.00  0.00  0.00
  T1-1                    1.00   0.00  1.00  0.00  0.00  0.00  0.00  0.00  0.00  0.00
  T1-2                    1.00   0.00  1.00  0.00  0.00  0.00  0.00  0.00  0.00  0.00
  T2-1                    1.00   0.00  0.00  0.00  0.66  0.34  0.00  0.00  0.57  0.00
  T2-2                    1.00   0.00  0.00  0.00  0.67  0.32  0.00  0.00  0.57  0.00
  T2-3                    1.00   0.00  0.00  0.00  0.47  0.53  0.00  0.00  0.03  0.00
  T3-1                    1.00   0.00  0.00  0.00  0.92  0.08  0.00  0.00  0.79  0.00
  T3-2                    1.00   0.00  0.00  0.00  0.00  0.99  0.00  0.00  0.00  0.00
  T5                      1.00   0.01  0.01  0.00  0.00  0.99  0.00  0.00  0.00  0.00
  
  
  *************************
  Conduit Surcharge Summary
  *************************
  
  ----------------------------------------------------------------------------
                                                           Hours        Hours 
                         --------- Hours Full --------   Above Full   Capacity
  Conduit                Both Ends  Upstream  Dnstream   Normal Flow   Limited
  ----------------------------------------------------------------------------
  T4-1                        0.01      0.01      0.47      0.01         0.01
  T4-2                        0.45      0.47      0.45      0.50         0.45
  T4-3                        0.01      0.45      0.01      0.01         0.01
  T2-1                        1.87      1.92      1.92      1.28         1.17
  T2-2                        1.92      1.92      2.00      1.24         1.17
  T2-3                        0.80      2.00      0.80      1.17         0.14
  T3-1                        0.80      0.80      0.92      2.47         0.79
  T3-2                        0.01      0.01      0.01      1.52         0.01
  

  Analysis begun on:  Tue Sep 29 09:48:49 2015
  Analysis ended on:  Tue Sep 29 09:48:50 2015
  Total elapsed time: 00:00:01